<?xml version="1.0" encoding="UTF-8"?>

<!-- generated on Fr 02 Jul 2021 11:19:14 CEST by Eclipse SUMO netedit Version v1_7_0+1228-0b1a97d77e
<configuration xmlns:xsi="http://www.w3.org/2001/XMLSchema-instance" xsi:noNamespaceSchemaLocation="http://sumo.dlr.de/xsd/netconvertConfiguration.xsd">

    <input>
        <sumo-net-file value="/home/kons/GIT/sumo/alex_traci/alex_2_blunt.net.xml"/>
    </input>

    <output>
        <output-file value="/home/kons/GIT/sumo/alex_traci/alex_2_blunt.net.xml"/>
    </output>

    <processing>
        <geometry.min-radius.fix.railways value="false"/>
        <geometry.max-grade.fix value="false"/>
        <offset.disable-normalization value="true"/>
        <lefthand value="false"/>
    </processing>

    <junctions>
        <no-turnarounds value="true"/>
        <junctions.corner-detail value="5"/>
        <junctions.limit-turn-speed value="5.5"/>
        <rectangular-lane-cut value="false"/>
    </junctions>

    <pedestrian>
        <walkingareas value="false"/>
    </pedestrian>

    <report>
        <aggregate-warnings value="5"/>
    </report>

</configuration>
-->

<net version="1.6" junctionCornerDetail="5" limitTurnSpeed="5.50" xmlns:xsi="http://www.w3.org/2001/XMLSchema-instance" xsi:noNamespaceSchemaLocation="http://sumo.dlr.de/xsd/net_file.xsd">

    <location netOffset="-392036.30,-5819272.32" convBoundary="308.92,790.47,777.82,1203.34" origBoundary="13.408821,52.512896,13.430340,52.524503" projParameter="+proj=utm +zone=33 +ellps=WGS84 +datum=WGS84 +units=m +no_defs"/>

    <type id="highway.bridleway" priority="1" numLanes="1" speed="2.78" allow="pedestrian" oneway="1" width="2.00"/>
    <type id="highway.bus_guideway" priority="1" numLanes="1" speed="27.78" allow="bus" oneway="1"/>
    <type id="highway.cycleway" priority="1" numLanes="1" speed="8.33" allow="bicycle" oneway="0" width="1.00"/>
    <type id="highway.footway" priority="1" numLanes="1" speed="2.78" allow="pedestrian" oneway="1" width="2.00"/>
    <type id="highway.ford" priority="1" numLanes="1" speed="2.78" allow="army" oneway="0"/>
    <type id="highway.living_street" priority="2" numLanes="1" speed="2.78" disallow="tram rail_urban rail rail_electric rail_fast ship" oneway="0"/>
    <type id="highway.motorway" priority="14" numLanes="2" speed="39.44" allow="private emergency authority army vip passenger hov taxi bus coach delivery truck trailer motorcycle evehicle custom1 custom2" oneway="1"/>
    <type id="highway.motorway_link" priority="9" numLanes="1" speed="22.22" allow="private emergency authority army vip passenger hov taxi bus coach delivery truck trailer motorcycle evehicle custom1 custom2" oneway="1"/>
    <type id="highway.path" priority="1" numLanes="1" speed="2.78" allow="pedestrian bicycle" oneway="0" width="2.00"/>
    <type id="highway.pedestrian" priority="1" numLanes="1" speed="2.78" allow="pedestrian" oneway="1" width="2.00"/>
    <type id="highway.primary" priority="12" numLanes="2" speed="27.78" disallow="tram rail_urban rail rail_electric rail_fast ship" oneway="0"/>
    <type id="highway.primary_link" priority="7" numLanes="1" speed="22.22" disallow="tram rail_urban rail rail_electric rail_fast ship" oneway="0"/>
    <type id="highway.raceway" priority="15" numLanes="2" speed="83.33" allow="vip" oneway="0"/>
    <type id="highway.residential" priority="3" numLanes="1" speed="13.89" disallow="tram rail_urban rail rail_electric rail_fast ship" oneway="0"/>
    <type id="highway.secondary" priority="11" numLanes="1" speed="27.78" disallow="tram rail_urban rail rail_electric rail_fast ship" oneway="0"/>
    <type id="highway.secondary_link" priority="6" numLanes="1" speed="22.22" disallow="tram rail_urban rail rail_electric rail_fast ship" oneway="0"/>
    <type id="highway.service" priority="1" numLanes="1" speed="5.56" allow="pedestrian delivery bicycle" oneway="0"/>
    <type id="highway.stairs" priority="1" numLanes="1" speed="1.39" allow="pedestrian" oneway="1" width="2.00"/>
    <type id="highway.step" priority="1" numLanes="1" speed="1.39" allow="pedestrian" oneway="1" width="2.00"/>
    <type id="highway.steps" priority="1" numLanes="1" speed="1.39" allow="pedestrian" oneway="1" width="2.00"/>
    <type id="highway.tertiary" priority="10" numLanes="1" speed="22.22" disallow="tram rail_urban rail rail_electric rail_fast ship" oneway="0"/>
    <type id="highway.tertiary_link" priority="5" numLanes="1" speed="22.22" disallow="tram rail_urban rail rail_electric rail_fast ship" oneway="0"/>
    <type id="highway.track" priority="1" numLanes="1" speed="5.56" allow="pedestrian motorcycle moped bicycle" oneway="0"/>
    <type id="highway.trunk" priority="13" numLanes="2" speed="27.78" disallow="pedestrian bicycle tram rail_urban rail rail_electric rail_fast ship" oneway="0"/>
    <type id="highway.trunk_link" priority="8" numLanes="1" speed="22.22" disallow="pedestrian bicycle tram rail_urban rail rail_electric rail_fast ship" oneway="0"/>
    <type id="highway.unclassified" priority="4" numLanes="1" speed="13.89" disallow="tram rail_urban rail rail_electric rail_fast ship" oneway="0"/>
    <type id="highway.unsurfaced" priority="1" numLanes="1" speed="8.33" disallow="tram rail_urban rail rail_electric rail_fast ship" oneway="0"/>
    <type id="railway.highspeed" priority="21" numLanes="1" speed="69.44" allow="rail_fast" oneway="1"/>
    <type id="railway.light_rail" priority="19" numLanes="1" speed="27.78" allow="rail_urban" oneway="1"/>
    <type id="railway.preserved" priority="16" numLanes="1" speed="27.78" allow="rail" oneway="1"/>
    <type id="railway.rail" priority="20" numLanes="1" speed="44.44" allow="rail" oneway="1"/>
    <type id="railway.subway" priority="18" numLanes="1" speed="27.78" allow="rail_urban" oneway="1"/>
    <type id="railway.tram" priority="17" numLanes="1" speed="13.89" allow="tram" oneway="1"/>

    <edge id=":1166137168_0" function="internal">
        <lane id=":1166137168_0_0" index="0" allow="bicycle" speed="13.89" length="0.40" width="1.00" shape="445.29,1096.66 444.77,1097.06"/>
        <lane id=":1166137168_0_1" index="1" disallow="bicycle tram rail_urban rail rail_electric rail_fast ship" speed="13.89" length="0.40" shape="443.96,1095.03 443.55,1095.35"/>
        <lane id=":1166137168_0_2" index="2" disallow="bicycle tram rail_urban rail rail_electric rail_fast ship" speed="13.89" length="0.40" shape="441.94,1092.55 441.69,1092.74"/>
        <lane id=":1166137168_0_3" index="3" disallow="bicycle tram rail_urban rail rail_electric rail_fast ship" speed="13.89" length="0.40" shape="439.92,1090.07 439.83,1090.14"/>
    </edge>
    <edge id=":1566942145_0" function="internal">
        <lane id=":1566942145_0_0" index="0" allow="bicycle" speed="13.89" length="0.29" width="1.00" shape="440.04,1059.87 440.20,1059.74"/>
        <lane id=":1566942145_0_1" index="1" disallow="bicycle tram rail_urban rail rail_electric rail_fast ship" speed="13.89" length="0.29" shape="441.38,1061.49 441.57,1061.33"/>
        <lane id=":1566942145_0_2" index="2" disallow="bicycle tram rail_urban rail rail_electric rail_fast ship" speed="13.89" length="0.29" shape="443.41,1063.96 443.66,1063.75"/>
        <lane id=":1566942145_0_3" index="3" disallow="bicycle tram rail_urban rail rail_electric rail_fast ship" speed="13.89" length="0.29" shape="445.45,1066.43 445.75,1066.18"/>
    </edge>
    <edge id=":1566942204_0" function="internal">
        <lane id=":1566942204_0_0" index="0" allow="bicycle" speed="13.89" length="0.35" width="1.00" shape="460.42,1084.20 460.23,1084.36"/>
        <lane id=":1566942204_0_1" index="1" disallow="bicycle tram rail_urban rail rail_electric rail_fast ship" speed="13.89" length="0.35" shape="459.13,1082.54 458.90,1082.73"/>
        <lane id=":1566942204_0_2" index="2" disallow="bicycle tram rail_urban rail rail_electric rail_fast ship" speed="13.89" length="0.35" shape="457.17,1080.01 456.88,1080.25"/>
        <lane id=":1566942204_0_3" index="3" disallow="bicycle tram rail_urban rail rail_electric rail_fast ship" speed="13.89" length="0.35" shape="455.21,1077.48 454.86,1077.77"/>
    </edge>
    <edge id=":1978612298_0" function="internal">
        <lane id=":1978612298_0_0" index="0" allow="bicycle" speed="13.89" length="8.00" width="1.00" shape="555.91,1091.79 554.20,1090.07 552.77,1089.13 551.38,1088.16 549.80,1086.34"/>
        <lane id=":1978612298_0_1" index="1" disallow="bicycle tram rail_urban rail rail_electric rail_fast ship" speed="13.89" length="8.00" shape="557.54,1090.47 555.86,1088.78 554.45,1087.87 553.08,1086.92 551.52,1085.14"/>
        <lane id=":1978612298_0_2" index="2" disallow="bicycle tram rail_urban rail rail_electric rail_fast ship" speed="13.89" length="8.00" shape="560.03,1088.45 558.38,1086.82 557.00,1085.94 555.66,1085.03 554.14,1083.31"/>
        <lane id=":1978612298_0_3" index="3" disallow="bicycle tram rail_urban rail rail_electric rail_fast ship" speed="13.89" length="8.00" shape="560.03,1088.45 558.80,1086.54 558.31,1085.02 557.86,1083.47 556.76,1081.47"/>
    </edge>
    <edge id=":1986668243_0" function="internal">
        <lane id=":1986668243_0_0" index="0" allow="bicycle" speed="13.89" length="8.67" width="1.00" shape="490.25,924.94 492.06,926.69 493.84,927.34 495.61,927.99 497.42,929.74"/>
        <lane id=":1986668243_0_1" index="1" disallow="bicycle tram rail_urban rail rail_electric rail_fast ship" speed="13.89" length="8.67" shape="488.52,926.13 490.33,927.88 492.11,928.52 493.88,929.17 495.69,930.93"/>
        <lane id=":1986668243_0_2" index="2" disallow="bicycle tram rail_urban rail rail_electric rail_fast ship" speed="13.89" length="8.67" shape="485.88,927.94 487.69,929.69 489.47,930.34 491.24,930.98 493.04,932.73"/>
        <lane id=":1986668243_0_3" index="3" disallow="bicycle tram rail_urban rail rail_electric rail_fast ship" speed="13.89" length="8.67" shape="483.25,929.76 485.05,931.50 486.83,932.15 488.60,932.79 490.40,934.54"/>
        <lane id=":1986668243_0_4" index="4" disallow="bicycle tram rail_urban rail rail_electric rail_fast ship" speed="13.89" length="8.67" shape="483.25,929.76 487.76,936.35"/>
        <lane id=":1986668243_0_5" index="5" disallow="bicycle tram rail_urban rail rail_electric rail_fast ship" speed="13.89" length="8.67" shape="483.25,929.76 484.23,932.07 484.19,933.95 484.15,935.84 485.12,938.15"/>
    </edge>
    <edge id=":1986691805_0" function="internal">
        <lane id=":1986691805_0_0" index="0" allow="bicycle" speed="13.89" length="8.67" width="1.00" shape="464.38,948.15 462.57,946.42 460.79,945.79 459.01,945.16 457.20,943.43"/>
        <lane id=":1986691805_0_1" index="1" disallow="bicycle tram rail_urban rail rail_electric rail_fast ship" speed="13.89" length="8.67" shape="466.11,946.96 464.30,945.22 462.52,944.59 460.74,943.96 458.92,942.23"/>
        <lane id=":1986691805_0_2" index="2" disallow="bicycle tram rail_urban rail rail_electric rail_fast ship" speed="13.89" length="8.67" shape="468.74,945.14 466.93,943.40 465.15,942.77 463.36,942.13 461.55,940.40"/>
        <lane id=":1986691805_0_3" index="3" disallow="bicycle tram rail_urban rail rail_electric rail_fast ship" speed="13.89" length="8.67" shape="471.37,943.32 469.56,941.58 467.78,940.94 465.99,940.31 464.17,938.57"/>
        <lane id=":1986691805_0_4" index="4" disallow="bicycle tram rail_urban rail rail_electric rail_fast ship" speed="13.89" length="8.67" shape="471.37,943.32 466.80,936.74"/>
        <lane id=":1986691805_0_5" index="5" disallow="bicycle tram rail_urban rail rail_electric rail_fast ship" speed="13.89" length="8.67" shape="471.37,943.32 470.38,941.00 470.40,939.11 470.42,937.22 469.42,934.91"/>
    </edge>
    <edge id=":2054664374_0" function="internal">
        <lane id=":2054664374_0_0" index="0" allow="bicycle" speed="13.89" length="8.21" width="1.00" shape="673.06,947.01 671.03,948.33 669.85,949.55 668.67,950.77 666.63,952.08"/>
        <lane id=":2054664374_0_1" index="1" disallow="bicycle tram rail_urban rail rail_electric rail_fast ship" speed="13.89" length="8.21" shape="672.10,945.14 670.08,946.46 668.90,947.68 667.72,948.90 665.69,950.20"/>
        <lane id=":2054664374_0_2" index="2" disallow="bicycle tram rail_urban rail rail_electric rail_fast ship" speed="13.89" length="8.21" shape="670.64,942.29 668.62,943.61 667.45,944.83 666.27,946.04 664.25,947.35"/>
        <lane id=":2054664374_0_3" index="3" disallow="bicycle tram rail_urban rail rail_electric rail_fast ship" speed="13.89" length="8.21" shape="670.64,942.29 668.40,943.16 666.72,943.40 665.05,943.63 662.80,944.49"/>
    </edge>
    <edge id=":262463906_0" function="internal">
        <lane id=":262463906_0_0" index="0" allow="bicycle" speed="13.89" length="0.42" width="1.00" shape="618.56,975.82 618.29,975.94"/>
        <lane id=":262463906_0_1" index="1" disallow="bicycle tram rail_urban rail rail_electric rail_fast ship" speed="13.89" length="0.42" shape="617.67,973.91 617.34,974.07"/>
        <lane id=":262463906_0_2" index="2" disallow="bicycle tram rail_urban rail rail_electric rail_fast ship" speed="13.89" length="0.42" shape="616.33,971.01 615.91,971.21"/>
        <lane id=":262463906_0_3" index="3" disallow="bicycle tram rail_urban rail rail_electric rail_fast ship" speed="13.89" length="0.42" shape="614.98,968.11 614.47,968.35"/>
    </edge>
    <edge id=":2843295188_0" function="internal">
        <lane id=":2843295188_0_0" index="0" allow="bicycle" speed="13.89" length="0.27" width="1.00" shape="575.78,960.74 575.97,960.63"/>
        <lane id=":2843295188_0_1" index="1" disallow="bicycle tram rail_urban rail rail_electric rail_fast ship" speed="13.89" length="0.27" shape="576.76,962.60 576.99,962.47"/>
        <lane id=":2843295188_0_2" index="2" disallow="bicycle tram rail_urban rail rail_electric rail_fast ship" speed="13.89" length="0.27" shape="578.27,965.42 578.55,965.26"/>
    </edge>
    <edge id=":2847385524_0" function="internal">
        <lane id=":2847385524_0_0" index="0" allow="bicycle" speed="13.89" length="0.30" width="1.00" shape="590.03,952.80 590.30,952.66"/>
        <lane id=":2847385524_0_1" index="1" disallow="bicycle tram rail_urban rail rail_electric rail_fast ship" speed="13.89" length="0.30" shape="591.05,954.64 591.32,954.50"/>
        <lane id=":2847385524_0_2" index="2" disallow="bicycle tram rail_urban rail rail_electric rail_fast ship" speed="13.89" length="0.30" shape="592.61,957.44 592.86,957.30"/>
    </edge>
    <edge id=":2921377244_0" function="internal">
        <lane id=":2921377244_0_0" index="0" allow="bicycle" speed="13.89" length="8.66" width="1.00" shape="610.91,979.65 608.97,981.18 608.12,982.84 607.28,984.51 605.35,986.08"/>
        <lane id=":2921377244_0_1" index="1" disallow="bicycle tram rail_urban rail rail_electric rail_fast ship" speed="13.89" length="8.66" shape="609.97,977.77 608.02,979.31 607.16,980.97 606.31,982.65 604.38,984.22"/>
        <lane id=":2921377244_0_2" index="2" disallow="bicycle tram rail_urban rail rail_electric rail_fast ship" speed="13.89" length="8.66" shape="608.53,974.91 606.57,976.45 605.70,978.12 604.84,979.81 602.90,981.39"/>
        <lane id=":2921377244_0_3" index="3" disallow="bicycle tram rail_urban rail rail_electric rail_fast ship" speed="13.89" length="8.66" shape="607.10,972.05 605.12,973.60 604.24,975.28 603.37,976.96 601.41,978.55"/>
        <lane id=":2921377244_0_4" index="4" disallow="bicycle tram rail_urban rail rail_electric rail_fast ship" speed="13.89" length="8.66" shape="607.10,972.05 599.93,975.71"/>
        <lane id=":2921377244_0_5" index="5" disallow="bicycle tram rail_urban rail rail_electric rail_fast ship" speed="13.89" length="8.66" shape="607.10,972.05 604.65,972.72 602.76,972.44 600.88,972.17 598.45,972.88"/>
    </edge>
    <edge id=":2922881190_0" function="internal">
        <lane id=":2922881190_0_0" index="0" allow="bicycle" speed="13.89" length="0.30" width="1.00" shape="582.39,998.09 582.15,998.22"/>
        <lane id=":2922881190_0_1" index="1" disallow="bicycle tram rail_urban rail rail_electric rail_fast ship" speed="13.89" length="0.30" shape="581.42,996.23 581.17,996.36"/>
        <lane id=":2922881190_0_2" index="2" disallow="bicycle tram rail_urban rail rail_electric rail_fast ship" speed="13.89" length="0.30" shape="579.93,993.39 579.68,993.53"/>
        <lane id=":2922881190_0_3" index="3" disallow="bicycle tram rail_urban rail rail_electric rail_fast ship" speed="13.89" length="0.30" shape="578.45,990.56 578.18,990.70"/>
        <lane id=":2922881190_0_4" index="4" disallow="bicycle tram rail_urban rail rail_electric rail_fast ship" speed="13.89" length="0.30" shape="576.97,987.72 576.69,987.87"/>
        <lane id=":2922881190_0_5" index="5" disallow="bicycle tram rail_urban rail rail_electric rail_fast ship" speed="13.89" length="0.30" shape="575.49,984.89 575.20,985.04"/>
    </edge>
    <edge id=":3056826813_0" function="internal">
        <lane id=":3056826813_0_0" index="0" allow="bicycle" speed="13.89" length="0.64" width="1.00" shape="441.38,1058.72 442.00,1058.21"/>
        <lane id=":3056826813_0_1" index="1" disallow="bicycle tram rail_urban rail rail_electric rail_fast ship" speed="13.89" length="0.64" shape="442.75,1060.31 443.30,1059.86"/>
        <lane id=":3056826813_0_2" index="2" disallow="bicycle tram rail_urban rail rail_electric rail_fast ship" speed="13.89" length="0.64" shape="444.84,1062.74 445.29,1062.37"/>
        <lane id=":3056826813_0_3" index="3" disallow="bicycle tram rail_urban rail rail_electric rail_fast ship" speed="13.89" length="0.64" shape="446.93,1065.16 447.27,1064.89"/>
    </edge>
    <edge id=":3058268517_0" function="internal">
        <lane id=":3058268517_0_0" index="0" allow="bicycle" speed="13.89" length="8.21" width="1.00" shape="447.97,1053.51 449.70,1051.83 450.62,1050.40 451.54,1048.98 453.27,1047.30"/>
        <lane id=":3058268517_0_1" index="1" disallow="bicycle tram rail_urban rail rail_electric rail_fast ship" speed="13.89" length="8.21" shape="449.27,1055.16 451.00,1053.48 451.92,1052.05 452.84,1050.63 454.57,1048.95"/>
        <lane id=":3058268517_0_2" index="2" disallow="bicycle tram rail_urban rail rail_electric rail_fast ship" speed="13.89" length="8.21" shape="451.25,1057.67 452.98,1055.99 453.90,1054.56 454.82,1053.14 456.55,1051.46"/>
        <lane id=":3058268517_0_3" index="3" disallow="bicycle tram rail_urban rail rail_electric rail_fast ship" speed="13.89" length="8.21" shape="453.23,1060.18 454.96,1058.50 455.88,1057.08 456.79,1055.66 458.52,1053.98"/>
        <lane id=":3058268517_0_4" index="4" disallow="bicycle tram rail_urban rail rail_electric rail_fast ship" speed="13.89" length="8.21" shape="453.23,1060.18 455.27,1058.90 456.86,1058.34 458.46,1057.78 460.50,1056.50"/>
    </edge>
    <edge id=":3058268518_0" function="internal">
        <lane id=":3058268518_0_0" index="0" allow="bicycle" speed="13.89" length="0.29" width="1.00" shape="477.72,1028.09 477.90,1027.94"/>
        <lane id=":3058268518_0_1" index="1" disallow="bicycle tram rail_urban rail rail_electric rail_fast ship" speed="13.89" length="0.29" shape="479.01,1029.74 479.21,1029.58"/>
        <lane id=":3058268518_0_2" index="2" disallow="bicycle tram rail_urban rail rail_electric rail_fast ship" speed="13.89" length="0.29" shape="480.99,1032.26 481.21,1032.08"/>
        <lane id=":3058268518_0_3" index="3" disallow="bicycle tram rail_urban rail rail_electric rail_fast ship" speed="13.89" length="0.29" shape="482.97,1034.78 483.21,1034.57"/>
        <lane id=":3058268518_0_4" index="4" disallow="bicycle tram rail_urban rail rail_electric rail_fast ship" speed="13.89" length="0.29" shape="484.94,1037.29 485.21,1037.07"/>
    </edge>
    <edge id=":3101344339_0" function="internal">
        <lane id=":3101344339_0_0" index="0" allow="bicycle" speed="13.89" length="0.24" width="1.00" shape="434.44,1064.53 434.41,1064.55"/>
        <lane id=":3101344339_0_1" index="1" disallow="bicycle tram rail_urban rail rail_electric rail_fast ship" speed="13.89" length="0.24" shape="435.68,1066.22 435.76,1066.16"/>
        <lane id=":3101344339_0_2" index="2" disallow="bicycle tram rail_urban rail rail_electric rail_fast ship" speed="13.89" length="0.24" shape="437.58,1068.80 437.81,1068.61"/>
        <lane id=":3101344339_0_3" index="3" disallow="bicycle tram rail_urban rail rail_electric rail_fast ship" speed="13.89" length="0.24" shape="439.47,1071.38 439.87,1071.07"/>
    </edge>
    <edge id=":3101344340_0" function="internal">
        <lane id=":3101344340_0_0" index="0" allow="bicycle" speed="13.89" length="0.30" width="1.00" shape="437.13,1062.27 437.39,1062.06"/>
        <lane id=":3101344340_0_1" index="1" disallow="bicycle tram rail_urban rail rail_electric rail_fast ship" speed="13.89" length="0.30" shape="438.48,1063.87 438.73,1063.68"/>
        <lane id=":3101344340_0_2" index="2" disallow="bicycle tram rail_urban rail rail_electric rail_fast ship" speed="13.89" length="0.30" shape="440.54,1066.33 440.77,1066.14"/>
        <lane id=":3101344340_0_3" index="3" disallow="bicycle tram rail_urban rail rail_electric rail_fast ship" speed="13.89" length="0.30" shape="442.60,1068.78 442.81,1068.61"/>
    </edge>
    <edge id=":3157297151_0" function="internal">
        <lane id=":3157297151_0_0" index="0" allow="bicycle" speed="13.89" length="0.32" width="1.00" shape="531.04,1046.20 530.76,1045.76"/>
        <lane id=":3157297151_0_1" index="1" disallow="bicycle tram rail_urban rail rail_electric rail_fast ship" speed="13.89" length="0.32" shape="532.80,1045.07 532.59,1044.71"/>
        <lane id=":3157297151_0_2" index="2" disallow="bicycle tram rail_urban rail rail_electric rail_fast ship" speed="13.89" length="0.32" shape="535.49,1043.33 535.36,1043.12"/>
        <lane id=":3157297151_0_3" index="3" disallow="bicycle tram rail_urban rail rail_electric rail_fast ship" speed="13.89" length="0.32" shape="538.18,1041.60 538.14,1041.53"/>
    </edge>
    <edge id=":3163433362_0" function="internal">
        <lane id=":3163433362_0_0" index="0" allow="bicycle" speed="13.89" length="0.30" width="1.00" shape="489.05,983.67 488.87,983.43"/>
        <lane id=":3163433362_0_1" index="1" disallow="bicycle tram rail_urban rail rail_electric rail_fast ship" speed="13.89" length="0.30" shape="490.77,982.46 490.59,982.22"/>
        <lane id=":3163433362_0_2" index="2" disallow="bicycle tram rail_urban rail rail_electric rail_fast ship" speed="13.89" length="0.30" shape="493.39,980.63 493.21,980.39"/>
        <lane id=":3163433362_0_3" index="3" disallow="bicycle tram rail_urban rail rail_electric rail_fast ship" speed="13.89" length="0.30" shape="496.01,978.79 495.83,978.55"/>
    </edge>
    <edge id=":3163433363_0" function="internal">
        <lane id=":3163433363_0_0" index="0" allow="bicycle" speed="13.89" length="0.29" width="1.00" shape="512.41,951.65 512.54,951.85"/>
        <lane id=":3163433363_0_1" index="1" disallow="bicycle tram rail_urban rail rail_electric rail_fast ship" speed="13.89" length="0.29" shape="510.68,952.84 510.82,953.05"/>
        <lane id=":3163433363_0_2" index="2" disallow="bicycle tram rail_urban rail rail_electric rail_fast ship" speed="13.89" length="0.29" shape="508.03,954.64 508.19,954.87"/>
        <lane id=":3163433363_0_3" index="3" disallow="bicycle tram rail_urban rail rail_electric rail_fast ship" speed="13.89" length="0.29" shape="505.39,956.45 505.56,956.70"/>
        <lane id=":3163433363_0_4" index="4" disallow="bicycle tram rail_urban rail rail_electric rail_fast ship" speed="13.89" length="0.29" shape="502.75,958.26 502.94,958.52"/>
        <lane id=":3163433363_0_5" index="5" disallow="bicycle tram rail_urban rail rail_electric rail_fast ship" speed="13.89" length="0.29" shape="500.11,960.06 500.31,960.35"/>
    </edge>
    <edge id=":3178079902_0" function="internal">
        <lane id=":3178079902_0_0" index="0" allow="bicycle" speed="13.89" length="0.20" width="1.00" shape="595.33,1080.37 595.35,1080.40"/>
        <lane id=":3178079902_0_1" index="1" disallow="bicycle tram rail_urban rail rail_electric rail_fast ship" speed="13.89" length="0.20" shape="593.45,1081.30 593.53,1081.45"/>
        <lane id=":3178079902_0_2" index="2" disallow="bicycle tram rail_urban rail rail_electric rail_fast ship" speed="13.89" length="0.20" shape="590.58,1082.72 590.77,1083.07"/>
    </edge>
    <edge id=":3178079905_0" function="internal">
        <lane id=":3178079905_0_0" index="0" allow="bicycle" speed="13.89" length="0.30" width="1.00" shape="592.47,1074.61 592.60,1074.88"/>
        <lane id=":3178079905_0_1" index="1" disallow="bicycle tram rail_urban rail rail_electric rail_fast ship" speed="13.89" length="0.30" shape="590.59,1075.55 590.72,1075.81"/>
        <lane id=":3178079905_0_2" index="2" disallow="bicycle tram rail_urban rail rail_electric rail_fast ship" speed="13.89" length="0.30" shape="587.72,1076.97 587.86,1077.24"/>
    </edge>
    <edge id=":3178759584_0" function="internal">
        <lane id=":3178759584_0_0" index="0" allow="bicycle" speed="13.89" length="0.48" width="1.00" shape="433.92,910.04 433.57,909.52"/>
        <lane id=":3178759584_0_1" index="1" disallow="bicycle tram rail_urban rail rail_electric rail_fast ship" speed="13.89" length="0.48" shape="435.64,908.84 435.32,908.36"/>
        <lane id=":3178759584_0_2" index="2" disallow="bicycle tram rail_urban rail rail_electric rail_fast ship" speed="13.89" length="0.48" shape="438.27,907.01 437.98,906.58"/>
        <lane id=":3178759584_0_3" index="3" disallow="bicycle tram rail_urban rail rail_electric rail_fast ship" speed="13.89" length="0.48" shape="440.89,905.18 440.64,904.80"/>
        <lane id=":3178759584_0_4" index="4" disallow="bicycle tram rail_urban rail rail_electric rail_fast ship" speed="13.89" length="0.48" shape="443.51,903.35 443.30,903.03"/>
        <lane id=":3178759584_0_5" index="5" disallow="bicycle tram rail_urban rail rail_electric rail_fast ship" speed="13.89" length="0.48" shape="446.14,901.52 445.96,901.25"/>
    </edge>
    <edge id=":667465427_0" function="internal">
        <lane id=":667465427_0_0" index="0" allow="bicycle" speed="13.89" length="0.30" width="1.00" shape="450.82,1092.15 450.55,1092.37"/>
        <lane id=":667465427_0_1" index="1" disallow="bicycle tram rail_urban rail rail_electric rail_fast ship" speed="13.89" length="0.30" shape="449.47,1090.54 449.22,1090.75"/>
        <lane id=":667465427_0_2" index="2" disallow="bicycle tram rail_urban rail rail_electric rail_fast ship" speed="13.89" length="0.30" shape="447.42,1088.08 447.20,1088.26"/>
        <lane id=":667465427_0_3" index="3" disallow="bicycle tram rail_urban rail rail_electric rail_fast ship" speed="13.89" length="0.30" shape="445.37,1085.63 445.18,1085.78"/>
    </edge>
    <edge id=":667787109_0" function="internal">
        <lane id=":667787109_0_0" index="0" allow="bicycle" speed="13.89" length="0.30" width="1.00" shape="593.95,1077.58 594.08,1077.85"/>
        <lane id=":667787109_0_1" index="1" disallow="bicycle tram rail_urban rail rail_electric rail_fast ship" speed="13.89" length="0.30" shape="592.07,1078.52 592.20,1078.79"/>
        <lane id=":667787109_0_2" index="2" disallow="bicycle tram rail_urban rail rail_electric rail_fast ship" speed="13.89" length="0.30" shape="589.20,1079.94 589.34,1080.21"/>
    </edge>
    <edge id=":6795798241_0" function="internal">
        <lane id=":6795798241_0_0" index="0" allow="bicycle" speed="13.89" length="0.30" width="1.00" shape="454.25,1089.28 454.01,1089.48"/>
        <lane id=":6795798241_0_1" index="1" disallow="bicycle tram rail_urban rail rail_electric rail_fast ship" speed="13.89" length="0.30" shape="452.90,1087.67 452.67,1087.87"/>
        <lane id=":6795798241_0_2" index="2" disallow="bicycle tram rail_urban rail rail_electric rail_fast ship" speed="13.89" length="0.30" shape="450.84,1085.22 450.61,1085.41"/>
        <lane id=":6795798241_0_3" index="3" disallow="bicycle tram rail_urban rail rail_electric rail_fast ship" speed="13.89" length="0.30" shape="448.79,1082.77 448.56,1082.96"/>
    </edge>
    <edge id=":735967920_0" function="internal">
        <lane id=":735967920_0_0" index="0" allow="bicycle" speed="13.89" length="8.18" width="1.00" shape="427.96,901.13 426.86,899.03 426.44,897.42 426.00,895.82 424.87,893.74"/>
        <lane id=":735967920_0_1" index="1" disallow="bicycle tram rail_urban rail rail_electric rail_fast ship" speed="13.89" length="8.18" shape="432.37,898.18 430.85,896.35 429.51,895.35 428.15,894.35 426.59,892.54"/>
        <lane id=":735967920_0_2" index="2" disallow="bicycle tram rail_urban rail rail_electric rail_fast ship" speed="13.89" length="8.18" shape="435.03,896.41 433.50,894.56 432.15,893.55 430.79,892.54 429.22,890.72"/>
        <lane id=":735967920_0_3" index="3" disallow="bicycle tram rail_urban rail rail_electric rail_fast ship" speed="13.89" length="8.18" shape="437.69,894.63 436.15,892.77 434.79,891.74 433.43,890.72 431.85,888.89"/>
        <lane id=":735967920_0_4" index="4" disallow="bicycle tram rail_urban rail rail_electric rail_fast ship" speed="13.89" length="8.18" shape="440.35,892.85 438.80,890.98 437.44,889.94 436.06,888.91 434.47,887.06"/>
    </edge>
    <edge id=":735967923_0" function="internal">
        <lane id=":735967923_0_0" index="0" allow="bicycle" speed="13.89" length="0.30" width="1.00" shape="436.50,913.75 436.33,913.50"/>
        <lane id=":735967923_0_1" index="1" disallow="bicycle tram rail_urban rail rail_electric rail_fast ship" speed="13.89" length="0.30" shape="438.23,912.55 438.06,912.30"/>
        <lane id=":735967923_0_2" index="2" disallow="bicycle tram rail_urban rail rail_electric rail_fast ship" speed="13.89" length="0.30" shape="440.85,910.72 440.68,910.47"/>
        <lane id=":735967923_0_3" index="3" disallow="bicycle tram rail_urban rail rail_electric rail_fast ship" speed="13.89" length="0.30" shape="443.48,908.89 443.30,908.64"/>